
**** 11/17/17 02:02:10 ********* PSpice 9.2 (Mar 2000) ******** ID# 0 ********

 ** Profile: "SCHEMATIC1-buck"  [ E:\1. ENGINEERING\2. BIO MEDICAL ENGINEERING\4. SEMESTER 4\2. MY NOTES\4. ELECTRONICS - III (4)\Ass


 ****     CIRCUIT DESCRIPTION


******************************************************************************




** Creating circuit file "buvky-SCHEMATIC1-buck.sim.cir" 
** WARNING: THIS AUTOMATICALLY GENERATED FILE MAY BE OVERWRITTEN BY SUBSEQUENT SIMULATIONS

*Libraries: 
* Local Libraries :
* From [PSPICE NETLIST] section of C:\Program Files\Orcad\PSpice\PSpice.ini file:
.lib "nom.lib" 

*Analysis directives: 
.TRAN  0 1500us 0 
.PROBE V(*) I(*) W(*) D(*) NOISE(*) 
.INC ".\buvky-SCHEMATIC1.net" 



**** INCLUDING buvky-SCHEMATIC1.net ****
* source BUVKY
R_R1         0 N00744  2.5  
L_L1         N00712 N00744  125uH  
V_V2         N00627 0 10V
C_C1         0 N00744  4uF  
V_V3         N00659 0  
+PULSE 0v 15v 1ps 1ns 1ns 10us 20us
M_M1         N00627 N00659 N00712 N00712 IRF843
D_D1         0 N00712 D1N5820 

**** RESUMING buvky-SCHEMATIC1-buck.sim.cir ****
.END

**** 11/17/17 02:02:10 ********* PSpice 9.2 (Mar 2000) ******** ID# 0 ********

 ** Profile: "SCHEMATIC1-buck"  [ E:\1. ENGINEERING\2. BIO MEDICAL ENGINEERING\4. SEMESTER 4\2. MY NOTES\4. ELECTRONICS - III (4)\Ass


 ****     Diode MODEL PARAMETERS


******************************************************************************




               D1N5820         
          IS    8.425000E-06 
         ISR   58.320000E-06 
         IKF    2.37         
          RS     .03463      
         CJO    1.288000E-09 
          VJ     .75         
           M     .5324       
         XTI    0            


**** 11/17/17 02:02:10 ********* PSpice 9.2 (Mar 2000) ******** ID# 0 ********

 ** Profile: "SCHEMATIC1-buck"  [ E:\1. ENGINEERING\2. BIO MEDICAL ENGINEERING\4. SEMESTER 4\2. MY NOTES\4. ELECTRONICS - III (4)\Ass


 ****     MOSFET MODEL PARAMETERS


******************************************************************************




               IRF843          
               NMOS            
       LEVEL    3            
           L    2.000000E-06 
           W     .68         
         VTO    3.879        
          KP   20.850000E-06 
       GAMMA    0            
         PHI     .6          
      LAMBDA    0            
          RD     .8203       
          RS    6.382000E-03 
          RG     .127        
         RDS    2.000000E+06 
          IS  100.100000E-12 
          JS    0            
          PB     .8          
        PBSW     .8          
         CBD    1.415000E-09 
          CJ    0            
        CJSW    0            
          TT  710.000000E-09 
        CGSO    1.610000E-09 
        CGDO  148.500000E-12 
        CGBO    0            
         TOX  100.000000E-09 
          XJ    0            
       UCRIT   10.000000E+03 
       DELTA    0            
         ETA    0            
      DIOMOD    1            
         VFB    0            
        LETA    0            
        WETA    0            
          U0    0            
        TEMP    0            
         VDD    0            
       XPART    0            


**** 11/17/17 02:02:10 ********* PSpice 9.2 (Mar 2000) ******** ID# 0 ********

 ** Profile: "SCHEMATIC1-buck"  [ E:\1. ENGINEERING\2. BIO MEDICAL ENGINEERING\4. SEMESTER 4\2. MY NOTES\4. ELECTRONICS - III (4)\Ass


 ****     INITIAL TRANSIENT SOLUTION       TEMPERATURE =   27.000 DEG C


******************************************************************************



 NODE   VOLTAGE     NODE   VOLTAGE     NODE   VOLTAGE     NODE   VOLTAGE


(N00627)   10.0000 (N00659)    0.0000 (N00712) 12.46E-06 (N00744) 12.46E-06 




    VOLTAGE SOURCE CURRENTS
    NAME         CURRENT

    V_V2        -5.000E-06
    V_V3         0.000E+00

    TOTAL POWER DISSIPATION   5.00E-05  WATTS


ERROR -- Convergence problem in transient analysis at Time =  1.250E-15
         Time step =  1.250E-15, minimum allowable step size =  1.500E-15

  These devices failed to converge:
    D_D1      M_M1      

ERROR -- Discontinuing simulation due to convergence problem


  Last node voltages tried were:

 NODE   VOLTAGE     NODE   VOLTAGE     NODE   VOLTAGE     NODE   VOLTAGE


(N00627)   10.0000 (N00659)    0.0000 (N00712) 12.46E-06 (N00744) 12.46E-06 

