
**** 11/17/17 13:19:27 ********* PSpice 9.2 (Mar 2000) ******** ID# 0 ********

 ** Profile: "SCHEMATIC1-boost1"  [ e:\1. engineering\2. bio medical engineering\4. semester 4\2. my notes\4. electronics - iii (4)\b


 ****     CIRCUIT DESCRIPTION


******************************************************************************




** Creating circuit file "buvky-schematic1-boost1.sim.cir" 
** WARNING: THIS AUTOMATICALLY GENERATED FILE MAY BE OVERWRITTEN BY SUBSEQUENT SIMULATIONS

*Libraries: 
* Local Libraries :
* From [PSPICE NETLIST] section of C:\Program Files\Orcad\PSpice\PSpice.ini file:
.lib "nom.lib" 

*Analysis directives: 
.TRAN  0 10000us 2000us 
.PROBE V(*) I(*) W(*) D(*) NOISE(*) 
.INC ".\buvky-SCHEMATIC1.net" 



**** INCLUDING buvky-SCHEMATIC1.net ****
* source BUVKY
R_R1         0 N00744  6  
L_L2         N00627 N00712  150uH  
V_V2         N00627 0 6V
D_D3         N00712 N00744 D1N5820 
V_V1         N04455 0  
+PULSE 4V 15V 1ps 1ps 1ps 10us 20us
C_C3         0 N00744  33.3uF  
M_M4         N00712 N04455 0 0 IRF044

**** RESUMING buvky-schematic1-boost1.sim.cir ****
.END

**** 11/17/17 13:19:27 ********* PSpice 9.2 (Mar 2000) ******** ID# 0 ********

 ** Profile: "SCHEMATIC1-boost1"  [ e:\1. engineering\2. bio medical engineering\4. semester 4\2. my notes\4. electronics - iii (4)\b


 ****     Diode MODEL PARAMETERS


******************************************************************************




               D1N5820         
          IS    8.425000E-06 
         ISR   58.320000E-06 
         IKF    2.37         
          RS     .03463      
         CJO    1.288000E-09 
          VJ     .75         
           M     .5324       
         XTI    0            


**** 11/17/17 13:19:27 ********* PSpice 9.2 (Mar 2000) ******** ID# 0 ********

 ** Profile: "SCHEMATIC1-boost1"  [ e:\1. engineering\2. bio medical engineering\4. semester 4\2. my notes\4. electronics - iii (4)\b


 ****     MOSFET MODEL PARAMETERS


******************************************************************************




               IRF044          
               NMOS            
       LEVEL    3            
           L    2.000000E-06 
           W    1.3          
         VTO    3.441        
          KP   21.210000E-06 
       GAMMA    0            
         PHI     .6          
      LAMBDA    0            
          RD  479.000000E-06 
          RS     .01008      
          RG    7.817        
         RDS  266.700000E+03 
          IS  228.700000E-15 
          JS    0            
          PB     .8          
        PBSW     .8          
         CBD    5.111000E-09 
          CJ    0            
        CJSW    0            
          TT  103.000000E-09 
        CGSO  830.700000E-12 
        CGDO    1.012000E-09 
        CGBO    0            
         TOX  100.000000E-09 
          XJ    0            
       UCRIT   10.000000E+03 
       DELTA    0            
         ETA    0            
      DIOMOD    1            
         VFB    0            
        LETA    0            
        WETA    0            
          U0    0            
        TEMP    0            
         VDD    0            
       XPART    0            


**** 11/17/17 13:19:27 ********* PSpice 9.2 (Mar 2000) ******** ID# 0 ********

 ** Profile: "SCHEMATIC1-boost1"  [ e:\1. engineering\2. bio medical engineering\4. semester 4\2. my notes\4. electronics - iii (4)\b


 ****     INITIAL TRANSIENT SOLUTION       TEMPERATURE =   27.000 DEG C


******************************************************************************



 NODE   VOLTAGE     NODE   VOLTAGE     NODE   VOLTAGE     NODE   VOLTAGE


(N00627)    6.0000 (N00712)    6.0000 (N00744)    5.6620 (N04455)    4.0000 




    VOLTAGE SOURCE CURRENTS
    NAME         CURRENT

    V_V2        -2.945E+00
    V_V1         0.000E+00

    TOTAL POWER DISSIPATION   1.77E+01  WATTS


ERROR -- Convergence problem in transient analysis at Time =  2.500E-15
         Time step =  2.500E-15, minimum allowable step size =  10.00E-15

  These devices failed to converge:
    M_M4      



  Last node voltages tried were:

 NODE   VOLTAGE     NODE   VOLTAGE     NODE   VOLTAGE     NODE   VOLTAGE


(N00627)    6.0000 (N00712)    6.0000 (N00744)    5.6620 (N04455)    4.0000 

